  10
  -229.27089982441558     
 C     1.18567043    -0.74438562     0.00000000
 C    -1.18567043    -0.74438562     0.00000000
 C     1.18567043     0.74438562     0.00000000
 C    -1.18567043     0.74438562     0.00000000
 C     0.00000000    -1.34186464     0.00000000
 C     0.00000000     1.34186464     0.00000000
 H     2.16428682     1.18224687     0.00000000
 H    -2.16428682     1.18224687     0.00000000
 H     2.16428682    -1.18224687     0.00000000
 H    -2.16428682    -1.18224687     0.00000000
