  10
  -229.38262545131968     
 C    -2.20843704     1.05104138     0.00000000
 C     2.20843704     1.05104138     0.00000000
 C    -1.49058899     0.10433511     0.00000000
 C     1.49058899     0.10433511     0.00000000
 H     2.83552802     1.90176482     0.00000000
 H    -2.83552802     1.90176482     0.00000000
 C    -0.66423210    -1.06766039     0.00000000
 C     0.66423210    -1.06766039     0.00000000
 H    -1.18119839    -2.01035733     0.00000000
 H     1.18119839    -2.01035733     0.00000000
