  14
  -231.91133042243865     
 C    -1.85801097    -0.50060273     0.00000000
 H    -1.75671446    -1.58106847     0.00000000
 C    -3.09149428     0.04296365     0.00000000
 H    -3.23834721     1.11676423     0.00000000
 H    -3.97927816    -0.57532875    -0.00000000
 C    -0.61839940     0.27483869     0.00000000
 H    -0.71686495     1.35607870     0.00000000
 C     0.61839951    -0.27483893     0.00000000
 H     0.71686498    -1.35607898     0.00000000
 C     1.85801095     0.50060274     0.00000000
 H     1.75671441     1.58106851    -0.00000000
 C     3.09149431    -0.04296354    -0.00000000
 H     3.23834720    -1.11676411     0.00000000
 H     3.97927807     0.57532900    -0.00000000
